
**** 12/13/17 11:27:04 ********* PSpice 9.2 (Mar 2000) ******** ID# 0 ********

 * C:\Users\Administrator\Desktop\Exam\4-a.sch


 ****     CIRCUIT DESCRIPTION


******************************************************************************




* Schematics Version 9.2
* Wed Dec 13 11:27:04 2017



** Analysis setup **
.tran 20us 150ms 0 20us


* From [PSPICE NETLIST] section of C:\Program Files\Orcad\PSpice\PSpice.ini:
.lib "nom.lib"

.INC "4-a.net"



**** INCLUDING 4-a.net ****
* Schematics Netlist *



Kn_K1         L_L1 L_L2     0.999
L_L2         0 4  0.5mH  
L_L1         2 0  0.5H  
R_R2         4 6  0.5  
R_RL         6 7  150  
V_V2         7 0 0V
R_R1         1 2  0.5  
V_Sin         1 0  
+SIN 0 120 60 0 0 0

**** RESUMING 4-a.cir ****
.PROBE V(*) I(*) W(*) D(*) NOISE(*) 


.END

**** 12/13/17 11:27:04 ********* PSpice 9.2 (Mar 2000) ******** ID# 0 ********

 * C:\Users\Administrator\Desktop\Exam\4-a.sch


 ****     INITIAL TRANSIENT SOLUTION       TEMPERATURE =   27.000 DEG C


******************************************************************************



 NODE   VOLTAGE     NODE   VOLTAGE     NODE   VOLTAGE     NODE   VOLTAGE


(    1)    0.0000  (    2)    0.0000  (    4)    0.0000  (    6)    0.0000      

(    7)    0.0000  




    VOLTAGE SOURCE CURRENTS
    NAME         CURRENT

    V_V2         0.000E+00
    V_Sin        0.000E+00

    TOTAL POWER DISSIPATION   0.00E+00  WATTS



          JOB CONCLUDED

          TOTAL JOB TIME             .17
