
**** 10/07/17 20:35:08 ********* PSpice 9.2 (Mar 2000) ******** ID# 0 ********

 Lab_2_Example_2.cir


 ****     CIRCUIT DESCRIPTION


******************************************************************************



R1      1       2       8
R2      3       4       20
R3      0       4       8
R4      5       2       16
R5      0       5       4
G1      3       2       5       0       0.5
V1      1       0       DC 10
.DC V1 10 10 1
.PRINT DC V(5,0)
.END

**** 10/07/17 20:35:08 ********* PSpice 9.2 (Mar 2000) ******** ID# 0 ********

 Lab_2_Example_2.cir


 ****     DC TRANSFER CURVES               TEMPERATURE =   27.000 DEG C


******************************************************************************



  V1          V(5,0)      

   1.000E+01   3.333E+00




          JOB CONCLUDED

          TOTAL JOB TIME             .02
