
**** 10/05/17 16:59:34 ********* PSpice 9.2 (Mar 2000) ******** ID# 0 ********

 Lab_2_Ex_1.cir


 ****     CIRCUIT DESCRIPTION


******************************************************************************



R1      4       0       2
R2      2       3       3
R3      1       2       3
R4      1       3       10
E1      1       4       2       3       3
V1      3       0       DC 20V
I1 0    2       DC 0.1A
.DC V1 20 20 1
.PRINT DC V(2,3) I(E1)
.END

**** 10/05/17 16:59:34 ********* PSpice 9.2 (Mar 2000) ******** ID# 0 ********

 Lab_2_Ex_1.cir


 ****     DC TRANSFER CURVES               TEMPERATURE =   27.000 DEG C


******************************************************************************



  V1          V(2,3)      I(E1)       

   2.000E+01  -2.916E+02   1.557E+02




          JOB CONCLUDED

          TOTAL JOB TIME            0.00
