
**** 10/05/17 17:08:12 ********* PSpice 9.2 (Mar 2000) ******** ID# 0 ********

 Lab_2_Exercise_2.cir


 ****     CIRCUIT DESCRIPTION


******************************************************************************



R1      1       2       8
R2      2       5       16
R3      6       0       4
R4      3       4       20
R5      4       0       8
V1      1       0       DC 10V
V2      5       6       DC 0V
F1      3       2       V2      0.5
.DC V1  10      10      1
.PRINT DC I(R2) V(3,2)
.END

**** 10/05/17 17:08:12 ********* PSpice 9.2 (Mar 2000) ******** ID# 0 ********

 Lab_2_Exercise_2.cir


 ****     DC TRANSFER CURVES               TEMPERATURE =   27.000 DEG C


******************************************************************************



  V1          I(R2)       V(3,2)      

   1.000E+01   4.167E-01  -1.417E+01




          JOB CONCLUDED

          TOTAL JOB TIME            0.00
