
**** 10/07/17 21:46:38 ********* PSpice 9.2 (Mar 2000) ******** ID# 0 ********

 LAB_2_EXERCISE_3.CIR


 ****     CIRCUIT DESCRIPTION


******************************************************************************



R1      1       5       10
R2      1       3       10
R3      1       2       5
R4      2       4       5
R5      2       6       10
V1      5       0       DC 100V
V2      6       0       DC 0V
G1      3       0       1       2       10
H1      4       0       V2      10
.DC     V1      100     100     1
.PRINT DC       V(1) V(2) V(1,2)        I(R5)
.END

**** 10/07/17 21:46:38 ********* PSpice 9.2 (Mar 2000) ******** ID# 0 ********

 LAB_2_EXERCISE_3.CIR


 ****     DC TRANSFER CURVES               TEMPERATURE =   27.000 DEG C


******************************************************************************



  V1          V(1)        V(2)        V(1,2)      I(R5)       

   1.000E+02   2.857E+00   1.905E+00   9.524E-01   1.905E-01




          JOB CONCLUDED

          TOTAL JOB TIME            0.00
