
**** 09/19/17 22:40:07 ********* PSpice 9.2 (Mar 2000) ******** ID# 0 ********

 Example_1.CIR 


 ****     CIRCUIT DESCRIPTION


******************************************************************************



Vs      1       0       DC      20.0V ; note the node placements 
Ra      1       2       5.0k
Rb      2       0       4.0k
Rc      3       0       1.0k
Is      3       2       DC      2.0mA ; note the node placements
.DC     Vs      20      20      1 ; this enables the .print commands
.PRINT  DC      V(1,2)  I(Ra)
.PRINT  DC      V(2)    I(Rb) 
.PRINT  DC      V(3)    I(Rc)
.END

**** 09/19/17 22:40:07 ********* PSpice 9.2 (Mar 2000) ******** ID# 0 ********

 Example_1.CIR 


 ****     DC TRANSFER CURVES               TEMPERATURE =   27.000 DEG C


******************************************************************************



  Vs          V(1,2)      I(Ra)       

   2.000E+01   6.667E+00   1.333E-03



**** 09/19/17 22:40:07 ********* PSpice 9.2 (Mar 2000) ******** ID# 0 ********

 Example_1.CIR 


 ****     DC TRANSFER CURVES               TEMPERATURE =   27.000 DEG C


******************************************************************************



  Vs          V(2)        I(Rb)       

   2.000E+01   1.333E+01   3.333E-03



**** 09/19/17 22:40:07 ********* PSpice 9.2 (Mar 2000) ******** ID# 0 ********

 Example_1.CIR 


 ****     DC TRANSFER CURVES               TEMPERATURE =   27.000 DEG C


******************************************************************************



  Vs          V(3)        I(Rc)       

   2.000E+01  -2.000E+00  -2.000E-03




          JOB CONCLUDED

          TOTAL JOB TIME            0.00
