
**** 09/26/17 20:33:13 ********* PSpice 9.2 (Mar 2000) ******** ID# 0 ********

 HOMEWORK_PROBLEM_1.CIR


 ****     CIRCUIT DESCRIPTION


******************************************************************************



Is      3       0       DC 0.136092A
R4      1       0       300
R5      2       0       250
R3      1       2       100
R1      3       1       150
R2      3       2       50
.DC     Is      0.136092        0.136092        1
.PRINT  DC      V(1,2)  I(R3)
.END

**** 09/26/17 20:33:13 ********* PSpice 9.2 (Mar 2000) ******** ID# 0 ********

 HOMEWORK_PROBLEM_1.CIR


 ****     DC TRANSFER CURVES               TEMPERATURE =   27.000 DEG C


******************************************************************************



  Is          V(1,2)      I(R3)       

   1.361E-01   1.655E+00   1.655E-02




          JOB CONCLUDED

          TOTAL JOB TIME            0.00
