
**** 09/19/17 23:25:52 ********* PSpice 9.2 (Mar 2000) ******** ID# 0 ********

 Practice_Problem_1.CIR


 ****     CIRCUIT DESCRIPTION


******************************************************************************



IDC4 0  63      DC      1.0A
R4      63      0       10
V7 63   67      DC 6.0V
R6      67      0       5
R8      67 68 7
V5 68 0 DC      2.0V
.DC V7 6        6       1       V5 2    2       1
.PRINT DC V(63) v(67) v(68)
.PRINT DC V(63,0)       I(R4)
.PRINT DC V(67,0)       I(R6)
.PRINT DC V(67,68) I(R8)
.END

**** 09/19/17 23:25:52 ********* PSpice 9.2 (Mar 2000) ******** ID# 0 ********

 Practice_Problem_1.CIR


 ****     DC TRANSFER CURVES               TEMPERATURE =   27.000 DEG C


******************************************************************************



  V7          V(63)       V(67)       V(68)       

   6.000E+00   7.548E+00   1.548E+00   2.000E+00



**** 09/19/17 23:25:52 ********* PSpice 9.2 (Mar 2000) ******** ID# 0 ********

 Practice_Problem_1.CIR


 ****     DC TRANSFER CURVES               TEMPERATURE =   27.000 DEG C


******************************************************************************



  V7          V(63,0)     I(R4)       

   6.000E+00   7.548E+00   7.548E-01



**** 09/19/17 23:25:52 ********* PSpice 9.2 (Mar 2000) ******** ID# 0 ********

 Practice_Problem_1.CIR


 ****     DC TRANSFER CURVES               TEMPERATURE =   27.000 DEG C


******************************************************************************



  V7          V(67,0)     I(R6)       

   6.000E+00   1.548E+00   3.097E-01



**** 09/19/17 23:25:52 ********* PSpice 9.2 (Mar 2000) ******** ID# 0 ********

 Practice_Problem_1.CIR


 ****     DC TRANSFER CURVES               TEMPERATURE =   27.000 DEG C


******************************************************************************



  V7          V(67,68)    I(R8)       

   6.000E+00  -4.516E-01  -6.452E-02




          JOB CONCLUDED

          TOTAL JOB TIME            0.00
