
**** 09/19/17 23:54:55 ********* PSpice 9.2 (Mar 2000) ******** ID# 0 ********

 PRACTICE_PROBLEM_2.CIR


 ****     CIRCUIT DESCRIPTION


******************************************************************************



V1      1       0       DC 6.0V
R1      1       2       2
R4 1    3       4
R2      2       0       4
R3      2       3       6
I1 0    3       DC 4.0A
.DC V1 6 6 1
.PRINT DC V(1,2) I(R1)
.END

**** 09/19/17 23:54:55 ********* PSpice 9.2 (Mar 2000) ******** ID# 0 ********

 PRACTICE_PROBLEM_2.CIR


 ****     DC TRANSFER CURVES               TEMPERATURE =   27.000 DEG C


******************************************************************************



  V1          V(1,2)      I(R1)       

   6.000E+00  -1.176E-01  -5.882E-02




          JOB CONCLUDED

          TOTAL JOB TIME            0.00
