
**** 09/28/17 20:23:34 ********* PSpice 9.2 (Mar 2000) ******** ID# 0 ********

 PRACTICE_PROBLEM_3.CIR


 ****     CIRCUIT DESCRIPTION


******************************************************************************



I1      0       1       DC      2.0A
R1      1       0       2
R2      2       0       4
R3      1       2       10
V1      2       1       DC      2.0V
I2      2       0       DC      7.0A
.DC     V1      2       2       1
.PRINT  DC      V(1)    V(2)
.END

**** 09/28/17 20:23:34 ********* PSpice 9.2 (Mar 2000) ******** ID# 0 ********

 PRACTICE_PROBLEM_3.CIR


 ****     DC TRANSFER CURVES               TEMPERATURE =   27.000 DEG C


******************************************************************************



  V1          V(1)        V(2)        

   2.000E+00  -7.333E+00  -5.333E+00




          JOB CONCLUDED

          TOTAL JOB TIME            0.00
