
**** 10/22/17 20:41:40 ********* PSpice 9.2 (Mar 2000) ******** ID# 0 ********

 LAB-3-EXAMPLE-1.cir


 ****     CIRCUIT DESCRIPTION


******************************************************************************



R1      1       3       5
R2      2       3       5
R3      2       0       10
R4      4       3       20
R5      3       5       10
V1 1    0       DC      0V
I1      0       4       DC 0A
G1      0       3       2       0       2
IL      0       5       DC      1A
.DC     V1      0       0       1
.PRINT  DC      V(5,0)
.END

**** 10/22/17 20:41:40 ********* PSpice 9.2 (Mar 2000) ******** ID# 0 ********

 LAB-3-EXAMPLE-1.cir


 ****     DC TRANSFER CURVES               TEMPERATURE =   27.000 DEG C


******************************************************************************



  V1          V(5,0)      

   0.000E+00   9.063E+00




          JOB CONCLUDED

          TOTAL JOB TIME            0.00
